Version 4
SHEET 1 1860 680
WIRE 640 -144 608 -144
WIRE 736 -144 720 -144
WIRE 848 -144 736 -144
WIRE 928 -128 912 -128
WIRE 1040 -128 928 -128
WIRE 736 -112 736 -144
WIRE 848 -112 816 -112
WIRE 192 -96 192 -112
WIRE 1120 -80 1120 -128
WIRE 1168 -80 1120 -80
WIRE 1040 -48 992 -48
WIRE 1120 -48 1120 -80
WIRE 1168 -48 1168 -80
WIRE 1216 -48 1168 -48
WIRE 1328 -32 1280 -32
WIRE 1376 -32 1328 -32
WIRE 368 -16 368 -32
WIRE 816 -16 816 -112
WIRE 928 -16 928 -128
WIRE 928 -16 816 -16
WIRE 1216 -16 1184 -16
WIRE 736 0 736 -32
WIRE 192 16 192 -16
WIRE 192 16 144 16
WIRE 192 64 192 16
WIRE 368 80 368 64
WIRE 1184 128 1184 -16
WIRE 1216 128 1184 128
WIRE 1328 128 1328 -32
WIRE 1328 128 1296 128
WIRE 1184 160 1184 128
WIRE 192 176 192 144
WIRE 1184 272 1184 240
FLAG 192 -112 +VCC
FLAG 192 176 -VCC
FLAG 368 80 0
FLAG 368 -32 Vi
FLAG 1248 -64 -VCC
FLAG 1184 272 0
FLAG 880 -160 -VCC
FLAG 992 -48 Vi
FLAG 736 0 0
FLAG 608 -144 +VCC
FLAG 1376 -32 Vo
FLAG 880 -96 +VCC
FLAG 1248 0 +VCC
FLAG 144 16 0
FLAG 1248 -80 0
SYMBOL voltage 192 -112 R0
WINDOW 123 0 0 Left 0
WINDOW 39 0 0 Left 0
SYMATTR InstName V1
SYMATTR Value 15
SYMBOL voltage 192 48 R0
WINDOW 123 0 0 Left 0
WINDOW 39 0 0 Left 0
SYMATTR InstName V2
SYMATTR Value 15
SYMBOL voltage 368 -32 R0
WINDOW 123 0 0 Left 0
WINDOW 39 0 0 Left 0
SYMATTR InstName V3
SYMATTR Value PULSE(0 5 0.001m 10m 0.001m 0.001m 10m 5)
SYMBOL res 1312 112 R90
WINDOW 0 0 56 VBottom 2
WINDOW 3 32 56 VTop 2
SYMATTR InstName R8
SYMATTR Value 18k
SYMBOL res 1200 256 R180
WINDOW 0 36 76 Left 2
WINDOW 3 36 40 Left 2
SYMATTR InstName R9
SYMATTR Value 10k
SYMBOL Opamps\\opamp2 1248 32 M180
SYMATTR InstName U3
SYMATTR Value TL08X
SYMBOL res 1136 -144 R90
WINDOW 0 0 56 VBottom 2
WINDOW 3 32 56 VTop 2
SYMATTR InstName R10
SYMATTR Value 18k
SYMBOL res 1136 -64 R90
WINDOW 0 0 56 VBottom 2
WINDOW 3 32 56 VTop 2
SYMATTR InstName R11
SYMATTR Value 10k
SYMBOL Opamps\\opamp2 880 -64 M180
SYMATTR InstName U4
SYMATTR Value TL08X
SYMBOL res 624 -128 R270
WINDOW 0 32 56 VTop 2
WINDOW 3 0 56 VBottom 2
SYMATTR InstName R12
SYMATTR Value 330k
SYMBOL res 720 -128 R0
SYMATTR InstName R13
SYMATTR Value 24k
TEXT 412 192 Left 2 !.tran 0 50m 10m 0.01m
TEXT 408 216 Left 2 !.lib Opamps_Comparators_ST.lib
TEXT 408 240 Left 2 !.lib 2N7000.nxp.lib
