Version 4
SHEET 1 3632 744
WIRE 2336 -304 2336 -320
WIRE 2544 -304 2544 -320
WIRE 2720 -224 2704 -224
WIRE 2896 -224 2880 -224
WIRE 2336 -192 2336 -224
WIRE 2544 -192 2544 -224
WIRE 2432 -144 2400 -144
WIRE 2480 -144 2432 -144
WIRE 1472 -112 1440 -112
WIRE 1568 -112 1536 -112
WIRE 2544 -80 2544 -96
WIRE 2704 -80 2704 -224
WIRE 2704 -80 2544 -80
WIRE 2768 -80 2704 -80
WIRE 2336 -64 2336 -96
WIRE 2432 -64 2432 -144
WIRE 2432 -64 2336 -64
WIRE 2896 -64 2896 -224
WIRE 2896 -64 2832 -64
WIRE 2960 -64 2896 -64
WIRE 2336 -48 2336 -64
WIRE 2544 -48 2544 -80
WIRE 2768 -48 2704 -48
WIRE 272 -16 240 -16
WIRE 368 -16 352 -16
WIRE 480 -16 368 -16
WIRE 1312 -16 1248 -16
WIRE 1424 -16 1392 -16
WIRE 1440 -16 1440 -112
WIRE 1440 -16 1424 -16
WIRE 560 0 544 0
WIRE 672 0 560 0
WIRE 2016 0 1968 0
WIRE 2128 0 2096 0
WIRE 2224 0 2208 0
WIRE 2272 0 2224 0
WIRE 2640 0 2608 0
WIRE 368 16 368 -16
WIRE 480 16 448 16
WIRE 1440 16 1440 -16
WIRE 1472 16 1440 16
WIRE 1248 32 1248 -16
WIRE 1248 32 1200 32
WIRE 1568 32 1568 -112
WIRE 1568 32 1536 32
WIRE 1616 32 1568 32
WIRE 1680 32 1616 32
WIRE 2704 32 2704 -48
WIRE 752 48 752 0
WIRE 800 48 752 48
WIRE 1472 48 1440 48
WIRE 1808 48 1744 48
WIRE 1856 48 1808 48
WIRE 1680 64 1664 64
WIRE 2640 64 2640 0
WIRE 672 80 624 80
WIRE 752 80 752 48
WIRE 800 80 800 48
WIRE 848 80 800 80
WIRE 1248 80 1248 32
WIRE 1312 80 1248 80
WIRE 1440 80 1440 48
WIRE 1440 80 1392 80
WIRE 1472 80 1440 80
WIRE 2224 80 2224 0
WIRE 960 96 912 96
WIRE 1008 96 960 96
WIRE 448 112 448 16
WIRE 560 112 560 0
WIRE 560 112 448 112
WIRE 848 112 816 112
WIRE 368 128 368 96
WIRE 1472 128 1472 80
WIRE 2336 160 2336 48
WIRE 2352 160 2336 160
WIRE 2448 160 2432 160
WIRE 2544 160 2544 48
WIRE 2544 160 2528 160
WIRE 80 176 80 160
WIRE 1664 192 1664 64
WIRE 1680 192 1664 192
WIRE 1808 192 1808 48
WIRE 1808 192 1760 192
WIRE 2224 192 2224 160
WIRE 1424 208 1424 -16
WIRE 1472 224 1472 208
WIRE 1664 224 1664 192
WIRE 2432 224 2432 160
WIRE 256 256 256 240
WIRE 816 256 816 112
WIRE 848 256 816 256
WIRE 960 256 960 96
WIRE 960 256 928 256
WIRE 2560 272 2496 272
WIRE 2640 272 2560 272
WIRE 2768 272 2720 272
WIRE 80 288 80 256
WIRE 80 288 32 288
WIRE 816 288 816 256
WIRE 1424 304 1424 288
WIRE 2560 304 2560 272
WIRE 80 336 80 288
WIRE 1664 336 1664 304
WIRE 256 352 256 336
WIRE 1856 384 1856 48
WIRE 1856 384 1472 384
WIRE 816 400 816 368
WIRE 2432 400 2432 320
WIRE 2560 400 2560 368
WIRE 1424 416 1424 400
WIRE 80 448 80 416
WIRE 2432 528 2432 480
WIRE 2512 528 2432 528
WIRE 2560 528 2560 480
WIRE 2560 528 2512 528
WIRE 2512 560 2512 528
FLAG 80 160 +VCC
FLAG 80 448 -VCC
FLAG 256 352 0
FLAG 256 240 Vi
FLAG 880 64 -VCC
FLAG 816 400 0
FLAG 512 -32 -VCC
FLAG 624 80 Vi
FLAG 368 128 0
FLAG 240 -16 +VCC
FLAG 1008 96 Vacond
FLAG 512 32 +VCC
FLAG 880 128 +VCC
FLAG 32 288 0
FLAG 880 48 0
FLAG 1504 64 -VCC
FLAG 1504 0 +VCC
FLAG 1472 224 0
FLAG 1424 416 0
FLAG 1712 80 -VCC
FLAG 1712 16 +VCC
FLAG 1664 336 0
FLAG 1200 32 Vacond
FLAG 2544 -320 +VCC
FLAG 2336 -320 +VCC
FLAG 2640 64 0
FLAG 2800 -96 +VCC
FLAG 2800 -32 -VCC
FLAG 2704 32 0
FLAG 2960 -64 Vo
FLAG 2512 560 -VCC
FLAG 2768 272 +VCC
FLAG 2224 192 0
FLAG 1968 0 Vtriang
FLAG 1616 32 Vtriang
SYMBOL voltage 80 160 R0
WINDOW 123 0 0 Left 0
WINDOW 39 0 0 Left 0
SYMATTR InstName V1
SYMATTR Value 15
SYMBOL voltage 80 320 R0
WINDOW 123 0 0 Left 0
WINDOW 39 0 0 Left 0
SYMATTR InstName V2
SYMATTR Value 15
SYMBOL voltage 256 240 R0
WINDOW 123 0 0 Left 0
WINDOW 39 0 0 Left 0
SYMATTR InstName V3
SYMATTR Value 5
SYMBOL res 944 240 R90
WINDOW 0 0 56 VBottom 2
WINDOW 3 32 56 VTop 2
SYMATTR InstName R1
SYMATTR Value 18k
SYMBOL res 832 384 R180
WINDOW 0 36 76 Left 2
WINDOW 3 36 40 Left 2
SYMATTR InstName R2
SYMATTR Value 10k
SYMBOL Opamps\\opamp2 880 160 M180
SYMATTR InstName U1
SYMATTR Value TL08X
SYMBOL res 768 -16 R90
WINDOW 0 0 56 VBottom 2
WINDOW 3 32 56 VTop 2
SYMATTR InstName R3
SYMATTR Value 18k
SYMBOL res 768 64 R90
WINDOW 0 0 56 VBottom 2
WINDOW 3 32 56 VTop 2
SYMATTR InstName R4
SYMATTR Value 10k
SYMBOL Opamps\\opamp2 512 64 M180
SYMATTR InstName U2
SYMATTR Value TL08X
SYMBOL res 256 0 R270
WINDOW 0 32 56 VTop 2
WINDOW 3 0 56 VBottom 2
SYMATTR InstName R5
SYMATTR Value 330k
SYMBOL res 352 0 R0
SYMATTR InstName R6
SYMATTR Value 24k
SYMBOL Opamps\\opamp2 1504 -32 R0
SYMATTR InstName U3
SYMATTR Value TL08X
SYMBOL res 1408 -32 R90
WINDOW 0 0 56 VBottom 2
WINDOW 3 32 56 VTop 2
SYMATTR InstName R7
SYMATTR Value 3000
SYMBOL res 1408 64 R90
WINDOW 0 0 56 VBottom 2
WINDOW 3 32 56 VTop 2
SYMATTR InstName R8
SYMATTR Value 1k
SYMBOL res 1488 224 R180
WINDOW 0 -51 59 Left 2
WINDOW 3 -59 36 Left 2
SYMATTR InstName R9
SYMATTR Value 1k
SYMBOL nmos 1472 304 M0
SYMATTR InstName M1
SYMATTR Value 2N7000
SYMATTR Prefix X
SYMBOL res 1408 192 R0
WINDOW 0 -40 28 Left 2
WINDOW 3 -63 50 Left 2
SYMATTR InstName R10
SYMATTR Value 1500
SYMBOL cap 1536 -128 R90
WINDOW 0 0 32 VBottom 2
WINDOW 3 32 32 VTop 2
SYMATTR InstName C1
SYMATTR Value 8.2n
SYMBOL Opamps\\opamp2 1712 -16 R0
SYMATTR InstName U4
SYMATTR Value TL08X
SYMBOL res 1776 176 R90
WINDOW 0 0 56 VBottom 2
WINDOW 3 32 56 VTop 2
SYMATTR InstName R11
SYMATTR Value 1k5
SYMBOL res 1680 320 R180
WINDOW 0 36 76 Left 2
WINDOW 3 36 40 Left 2
SYMATTR InstName R12
SYMATTR Value 1k
SYMBOL npn 2272 -48 R0
SYMATTR InstName Q1
SYMATTR Value BC547C
SYMBOL npn 2608 -48 M0
SYMATTR InstName Q2
SYMATTR Value BC547C
SYMBOL res 2320 -320 R0
SYMATTR InstName R13
SYMATTR Value 4k7
SYMBOL res 2528 -320 R0
SYMATTR InstName R14
SYMATTR Value 4k7
SYMBOL pnp 2400 -96 R180
SYMATTR InstName Q3
SYMATTR Value BC557C
SYMBOL pnp 2480 -96 M180
SYMATTR InstName Q4
SYMATTR Value BC557C
SYMBOL Opamps\\opamp2 2800 -128 R0
SYMATTR InstName U5
SYMATTR Value TL08X
SYMBOL res 2896 -240 R90
WINDOW 0 0 56 VBottom 2
WINDOW 3 32 56 VTop 2
SYMATTR InstName R15
SYMATTR Value 500
SYMBOL npn 2496 224 M0
SYMATTR InstName Q5
SYMATTR Value BC547C
SYMBOL res 2416 384 R0
SYMATTR InstName R16
SYMATTR Value 7500
SYMBOL res 2544 384 R0
SYMATTR InstName R17
SYMATTR Value 5k6
SYMBOL res 2736 256 R90
WINDOW 0 0 56 VBottom 2
WINDOW 3 32 56 VTop 2
SYMATTR InstName R18
SYMATTR Value 5k6
SYMBOL diode 2544 304 R0
SYMATTR InstName D1
SYMATTR Value 1N4148
SYMBOL res 2448 144 R90
WINDOW 0 0 56 VBottom 2
WINDOW 3 32 56 VTop 2
SYMATTR InstName R19
SYMATTR Value 31.2
SYMBOL res 2544 144 R90
WINDOW 0 0 56 VBottom 2
WINDOW 3 32 56 VTop 2
SYMATTR InstName R20
SYMATTR Value 31.2
SYMBOL res 2816 -240 R90
WINDOW 0 0 56 VBottom 2
WINDOW 3 32 56 VTop 2
SYMATTR InstName R21
SYMATTR Value 100
SYMBOL res 2208 64 R0
SYMATTR InstName R22
SYMATTR Value 330
SYMBOL res 2224 -16 R90
WINDOW 0 0 56 VBottom 2
WINDOW 3 32 56 VTop 2
SYMATTR InstName R23
SYMATTR Value 4k3
SYMBOL res 2112 -16 R90
WINDOW 0 0 56 VBottom 2
WINDOW 3 32 56 VTop 2
SYMATTR InstName R24
SYMATTR Value 5k1
TEXT 288 528 Left 2 !.tran 0 5m 3m 0.1u startup
TEXT 280 552 Left 2 !.lib Opamps_Comparators_ST.lib
TEXT 280 576 Left 2 !.lib 2N7000.nxp.lib
