Version 4
SHEET 1 900 680
WIRE 512 -80 480 -80
WIRE 608 -80 576 -80
WIRE -160 -16 -176 -16
WIRE -48 -16 -160 -16
WIRE -240 0 -272 0
WIRE 32 32 32 -16
WIRE 80 32 32 32
WIRE 352 32 288 32
WIRE 464 32 432 32
WIRE 480 32 480 -80
WIRE 480 32 464 32
WIRE -768 48 -768 32
WIRE -48 64 -96 64
WIRE 32 64 32 32
WIRE 80 64 80 32
WIRE 128 64 80 64
WIRE 480 64 480 32
WIRE 512 64 480 64
WIRE 240 80 192 80
WIRE 288 80 288 32
WIRE 288 80 240 80
WIRE 608 80 608 -80
WIRE 608 80 576 80
WIRE 720 80 608 80
WIRE -272 96 -272 0
WIRE -160 96 -160 -16
WIRE -160 96 -272 96
WIRE 128 96 96 96
WIRE 512 96 480 96
WIRE 848 96 784 96
WIRE 896 96 848 96
WIRE 720 112 704 112
WIRE -592 128 -592 112
WIRE 288 128 288 80
WIRE 352 128 288 128
WIRE 480 128 480 96
WIRE 480 128 432 128
WIRE 512 128 480 128
WIRE -768 160 -768 128
WIRE -768 160 -816 160
WIRE -816 176 -816 160
WIRE 512 176 512 128
WIRE -768 208 -768 160
WIRE -592 224 -592 208
WIRE 96 240 96 96
WIRE 128 240 96 240
WIRE 240 240 240 80
WIRE 240 240 208 240
WIRE 704 240 704 112
WIRE 720 240 704 240
WIRE 848 240 848 96
WIRE 848 240 800 240
WIRE 464 256 464 32
WIRE 96 272 96 240
WIRE 512 272 512 256
WIRE 704 272 704 240
WIRE -768 320 -768 288
WIRE 464 352 464 336
WIRE 96 384 96 352
WIRE 704 384 704 352
WIRE 560 432 512 432
WIRE 896 432 896 96
WIRE 896 432 640 432
WIRE 464 464 464 448
FLAG -816 176 0
FLAG -768 32 +VCC
FLAG -768 320 -VCC
FLAG 544 112 -VCC
FLAG 544 48 +VCC
FLAG 512 272 0
FLAG 464 464 0
FLAG 752 128 -VCC
FLAG 752 64 +VCC
FLAG -592 224 0
FLAG -592 112 Vi
FLAG 704 384 0
FLAG 160 112 +VCC
FLAG 160 48 -VCC
FLAG 96 384 0
FLAG -208 16 +VCC
FLAG -208 -48 -VCC
FLAG -96 64 Vi
SYMBOL Opamps\\opamp2 544 16 R0
SYMATTR InstName U1
SYMATTR Value TL08X
SYMBOL res 448 16 R90
WINDOW 0 0 56 VBottom 2
WINDOW 3 32 56 VTop 2
SYMATTR InstName R1
SYMATTR Value 1000
SYMBOL res 448 112 R90
WINDOW 0 0 56 VBottom 2
WINDOW 3 32 56 VTop 2
SYMATTR InstName R2
SYMATTR Value 10k
SYMBOL res 528 272 R180
WINDOW 0 -51 59 Left 2
WINDOW 3 -37 30 Left 2
SYMATTR InstName R3
SYMATTR Value 10k
SYMBOL voltage -768 32 R0
WINDOW 123 0 0 Left 0
WINDOW 39 0 0 Left 0
SYMATTR InstName V1
SYMATTR Value 15
SYMBOL voltage -768 192 R0
WINDOW 123 0 0 Left 0
WINDOW 39 0 0 Left 0
SYMATTR InstName V2
SYMATTR Value 15
SYMBOL nmos 512 352 M0
SYMATTR InstName M1
SYMATTR Value 2N7000
SYMATTR Prefix X
SYMBOL res 448 240 R0
WINDOW 0 -40 28 Left 2
WINDOW 3 -41 53 Left 2
SYMATTR InstName R4
SYMATTR Value 500
SYMBOL cap 576 -96 R90
WINDOW 0 0 32 VBottom 2
WINDOW 3 32 32 VTop 2
SYMATTR InstName C1
SYMATTR Value 100n
SYMBOL Opamps\\opamp2 752 32 R0
SYMATTR InstName U2
SYMATTR Value TL08X
SYMBOL res 816 224 R90
WINDOW 0 0 56 VBottom 2
WINDOW 3 32 56 VTop 2
SYMATTR InstName R5
SYMATTR Value 15k
SYMBOL res 720 368 R180
WINDOW 0 36 76 Left 2
WINDOW 3 36 40 Left 2
SYMATTR InstName R6
SYMATTR Value 10k
SYMBOL voltage -592 112 R0
WINDOW 123 0 0 Left 0
WINDOW 39 0 0 Left 0
SYMATTR InstName V3
SYMATTR Value 5
SYMBOL res 656 416 R90
WINDOW 0 0 56 VBottom 2
WINDOW 3 32 56 VTop 2
SYMATTR InstName R7
SYMATTR Value 330k
SYMBOL res 224 224 R90
WINDOW 0 0 56 VBottom 2
WINDOW 3 32 56 VTop 2
SYMATTR InstName R8
SYMATTR Value 10k
SYMBOL res 112 368 R180
WINDOW 0 36 76 Left 2
WINDOW 3 36 40 Left 2
SYMATTR InstName R9
SYMATTR Value 10k
SYMBOL Opamps\\opamp2 160 144 M180
SYMATTR InstName U3
SYMATTR Value TL08X
SYMBOL res 48 -32 R90
WINDOW 0 0 56 VBottom 2
WINDOW 3 32 56 VTop 2
SYMATTR InstName R10
SYMATTR Value 10k
SYMBOL res 48 48 R90
WINDOW 0 0 56 VBottom 2
WINDOW 3 32 56 VTop 2
SYMATTR InstName R11
SYMATTR Value 10k
SYMBOL Opamps\\opamp2 -208 48 M180
SYMATTR InstName U4
SYMATTR Value TL08X
SYMBOL res -464 0 R270
WINDOW 0 32 56 VTop 2
WINDOW 3 0 56 VBottom 2
SYMATTR InstName R12
SYMATTR Value 10k
SYMBOL res -464 -16 R270
WINDOW 0 32 56 VTop 2
WINDOW 3 0 56 VBottom 2
SYMATTR InstName R13
SYMATTR Value 10k
TEXT -508 536 Left 2 !.tran 0 20m 10m 0.01m
TEXT -512 560 Left 2 !.lib Opamps_Comparators_ST.lib
TEXT -512 584 Left 2 !.lib 2N7000.nxp.lib
