Version 4
SHEET 1 2008 788
FLAG 16 320 0
FLAG 160 320 0
FLAG 912 768 0
FLAG 1072 768 0
FLAG 544 656 0
SYMBOL res 144 224 R0
SYMATTR InstName R1
SYMBOL res 800 -224 R90
WINDOW 0 0 56 VBottom 2
WINDOW 3 32 56 VTop 2
SYMATTR InstName R2
SYMBOL res 832 208 R90
WINDOW 0 0 56 VBottom 2
WINDOW 3 32 56 VTop 2
SYMATTR InstName R3
SYMBOL res 560 464 R180
WINDOW 0 36 76 Left 2
WINDOW 3 36 40 Left 2
SYMATTR InstName R4
SYMBOL res 1088 784 R180
WINDOW 0 36 76 Left 2
WINDOW 3 36 40 Left 2
SYMATTR InstName R5
SYMBOL Opamps\\opamp2 496 -80 R0
SYMATTR InstName U1
SYMBOL cap 896 704 R0
SYMATTR InstName C1
SYMBOL cap 0 256 R0
SYMATTR InstName C2
SYMBOL cap 704 -224 R90
WINDOW 0 0 32 VBottom 2
WINDOW 3 32 32 VTop 2
SYMATTR InstName C3
SYMBOL diode 1104 384 R180
WINDOW 0 24 64 Left 2
WINDOW 3 24 0 Left 2
SYMATTR InstName D1
SYMATTR Value 1N4148
SYMBOL zener 1072 416 R0
SYMATTR InstName D2
SYMATTR Value 1N5230
SYMBOL njf 592 560 M0
SYMATTR InstName J1
SYMBOL voltage 1792 288 R0
SYMATTR InstName V1
SYMBOL voltage 1952 288 R0
SYMATTR InstName V2
